Version 4
SHEET 1 2004 680
WIRE 768 -160 768 -192
WIRE 768 -64 768 -160
WIRE 528 -48 496 -48
WIRE 736 -48 528 -48
WIRE 1040 -32 800 -32
WIRE 1088 -32 1040 -32
WIRE 1376 -32 1328 -32
WIRE 1504 -32 1376 -32
WIRE 1760 -32 1584 -32
WIRE 1952 -32 1760 -32
WIRE 2000 -32 1952 -32
WIRE -752 -16 -752 -64
WIRE -624 -16 -624 -64
WIRE -320 -16 -320 -64
WIRE 32 -16 32 -64
WIRE 528 -16 496 -16
WIRE 736 -16 528 -16
WIRE 1760 80 1760 -32
WIRE 768 96 768 0
WIRE 768 112 768 96
WIRE -752 128 -752 -16
WIRE -624 128 -624 -16
WIRE -320 128 -320 -16
WIRE 32 128 32 -16
WIRE 1760 272 1760 144
WIRE -752 368 -752 208
WIRE -624 368 -624 208
WIRE -624 368 -752 368
WIRE -320 368 -320 208
WIRE -320 368 -624 368
WIRE -80 368 -320 368
WIRE 32 368 32 208
WIRE 32 368 -80 368
WIRE -80 400 -80 368
FLAG -80 400 0
FLAG 32 -16 carr
FLAG -320 -16 mod
FLAG 768 -160 vdd
FLAG -624 -16 vdd
FLAG 528 -48 carr
FLAG 528 -16 mod
FLAG 1040 -32 pwm
FLAG -752 -16 vss
FLAG 768 96 vss
FLAG 1760 272 0
FLAG 1952 -32 out
FLAG 1376 -32 pwm
SYMBOL voltage 32 112 R0
WINDOW 123 0 0 Left 0
WINDOW 39 0 0 Left 0
SYMATTR InstName V1
SYMATTR Value PULSE(-1 1 0 {1/(2*fc)} {1/(2*fc)} 0 {1/fc} 1k)
SYMBOL voltage -320 112 R0
WINDOW 123 0 0 Left 0
WINDOW 39 0 0 Left 0
SYMATTR InstName V2
SYMATTR Value SINE(0 {m} 50 0 0 0 100)
SYMBOL voltage -624 112 R0
WINDOW 123 0 0 Left 0
WINDOW 39 0 0 Left 0
SYMATTR InstName V3
SYMATTR Value 5
SYMBOL OpAmps\\UniversalOpAmp2 768 -32 R0
SYMATTR InstName U2
SYMBOL voltage -752 112 R0
WINDOW 123 0 0 Left 0
WINDOW 39 0 0 Left 0
SYMATTR InstName V4
SYMATTR Value -5
SYMBOL ind 1488 -16 R270
WINDOW 0 32 56 VTop 2
WINDOW 3 5 56 VBottom 2
SYMATTR InstName L1
SYMATTR Value 1
SYMBOL cap 1744 80 R0
SYMATTR InstName C1
SYMATTR Value 10.13µ
TEXT -364 424 Left 2 !.tran 100m
TEXT -352 472 Left 2 !.param fc=10k m=0.8
